6
	Energy:      -0.2032273
O          0.96627        0.67905        0.92178
H          0.14089        0.92781        0.43441
H          1.59040        1.42730        0.74742
O          4.35255        1.63906        1.32388
H          5.21619        1.52989        0.85366
H          4.06634        0.71417        1.53540
